&RUN
iexpnr     = 001
lwarmstart = .false.
startfile  = 'initd001h00mx000y000.001'
runtime    = 7200
trestart   = 3600
ladaptive  = .true.
irandom    = 1
randthl    = 0.1
randqt     = 2.5e-5
nsv        = 0
nprocx     = 4
nprocy     = 1
/

&DOMAIN
itot       = 1024
jtot       = 256
kmax       = 80
xsize      = 51200.
ysize      = 12800.
/

&PHYSICS
z0         = 2e-4
ps         = 101500.00
thls       = 299.10
lmoist     = .true.
lcoriol    = .false.
igrw_damp  = 3       ! 3 = nudge (damping) to mean profile
/

&NAMSURFACE
wtsurf     = 8e-3
wqsurf     = 5.2e-5
isurf      = 3
ustin      = 0.28
/

&DYNAMICS
llsadv     = .false.
lqlnr      = .false.
cu         = 0.
cv         = 0.

iadv_mom   =  52
iadv_tke   =  52
iadv_thl   =  52
iadv_qt    =  52
iadv_sv    =  52
/

&NAMSUBGRID
ldelta     = .false.
/

&NAMBUDGET 
lbudget    = .true.
dtav       = 60.
timeav     = 60.
/

&NAMCHECKSIM
tcheck     = 60
/

&NAMSAMPLING
dtav       = 60.
timeav     = 60.
lsampcl    = .true.
lsampco    = .true.
lsampup    = .true.
lsampbuup  = .true.
/

&NAMTIMESTAT
ltimestat   = .true.
dtav        = 60
/

&NAMCROSSSECTION
lcross      = .true.
dtav        = 60
crossheight = 2 7 17 20
/

&NAMGENSTAT
lstat       = .true.
dtav        = 60
timeav      = 60
/

&NAMFIELDDUMP
lfielddump  = .false.
dtav        = 60
ldiracc     = .true.
/

&NAMSTATTEND
dtav = 60
ltend = .true.
/

&NAMNUDGEBOUNDARY
lnudge_boundary = .true.
nudge_offset = 1025
nudge_width = 300
/
